
**** 11/08/24 22:57:54 ****** PSpice Lite (October 2012) ****** ID# 10813 ****

 ** Profile: "SCHEMATIC1-FACTOR STABILIZARE"  [ D:\P1s_2024\STAB_TST_10\STAB_TST_10-PSpiceFiles\SCHEMATIC1\FACTOR STABILIZARE.sim ] 


 ****     CIRCUIT DESCRIPTION


******************************************************************************




** Creating circuit file "FACTOR STABILIZARE.cir" 
** WARNING: THIS AUTOMATICALLY GENERATED FILE MAY BE OVERWRITTEN BY SUBSEQUENT SIMULATIONS

*Libraries: 
* Profile Libraries :
* Local Libraries :
.LIB "d:/p1s_2023/modele_a1_lib/1n4148.lib" 
.LIB "d:/p1s_2023/modele_a1_lib/bc807-25.lib" 
.LIB "d:/p1s_2023/modele_a1_lib/bc817-25.lib" 
.LIB "d:/p1s_2023/modele_a1_lib/bc846b.lib" 
.LIB "d:/p1s_2023/modele_a1_lib/bc856b.lib" 
.LIB "d:/p1s_2023/modele_a1_lib/bzx84c2v7.lib" 
.LIB "d:/p1s_2023/modele_a1_lib/bzx84c5v1.lib" 
.LIB "d:/p1s_2023/modele_a1_lib/irfr120npbf.lib" 
.LIB "d:/p1s_2023/modele_a1_lib/mjd31cg.lib" 
.LIB "d:/p1s_2023/modele_a1_lib/mjd32cg.lib" 
.LIB "d:/p1s_2023/modele_a1_lib/mmbfj177lt1g.lib" 
.LIB "d:/p1s_2023/modele_a1_lib/mmbfj309lt1g.lib" 
.LIB "d:/p1s_2023/modele_a1_lib/opto.lib" 
.LIB "d:/p1s_2023/modele_a1_lib/smls14bet.lib" 
* From [PSPICE NETLIST] section of C:\Users\seby_\AppData\Roaming\SPB_16.6\cdssetup\OrCAD_PSpice/16.6.0/PSpice.ini file:
.lib "nomd.lib" 

*Analysis directives: 
.DC LIN V_VCC 6.66 7.5 0.01 
.OPTIONS ADVCONV
.PROBE64 V(alias(*)) I(alias(*)) W(alias(*)) D(alias(*)) NOISE(alias(*)) 
.INC "..\SCHEMATIC1.net" 



**** INCLUDING SCHEMATIC1.net ****
* source STAB_TST_10
Q_Q5         N183595 N186699 N186468 QBC817-25 
R_R12         N182999 N183005  1K TC=0,0 
X_P1         N183705 N183201 N187381 POT PARAMS: SET=0.4 VALUE=1K
R_R2         N182795 VCC  510 TC=0,0 
R_RC2         N183015 OUT  0.47 TC=0,0 
Q_Q2         N183273 N182723 N183595 QBC817-25 
Q_Q1         N183273 N183273 N183545 QBC807-25 
V_VCC         VCC 0 6.66
R_RLOAD         OUT 0  510 TC=0,0 
R_R6         OUT N182999  3.3K TC=0,0 
I_I1         OUT 0 DC 0Adc  
R_R10         N183545 VCC  220 TC=0,0 
Q_Q3         N183049 N183201 N183595 QBC817-25 
Q_QESR2         VCC N183049 N183015 QMJD31C 
Q_Q4         N183049 N183273 N183551 QBC807-25 
R_R11         N183551 VCC  220 TC=0,0 
R_R9         N183705 N183251  100 TC=0,0 
R_R30         N182723 0  51K TC=0,0 
R_R29         N182795 N182723  100K TC=0,0 
D_D1         0 N182795 BZX84-C2V7 
R_R31         N186468 0  100 TC=0,0 
D_D2         N186699 0 Dbreak 
R_R32         VCC N186699  510 TC=0,0 
R_R33         N183005 N187381  220 TC=0,0 
R_R34         N183251 0  1K TC=0,0 
Q_Q6         N183049 N183015 OUT QBC846B 
R_RC3         N183015 OUT  0.47 TC=0,0 
R_RC4         N183015 OUT  0.47 TC=0,0 

**** RESUMING "FACTOR STABILIZARE.cir" ****
.END

**** 11/08/24 22:57:54 ****** PSpice Lite (October 2012) ****** ID# 10813 ****

 ** Profile: "SCHEMATIC1-FACTOR STABILIZARE"  [ D:\P1s_2024\STAB_TST_10\STAB_TST_10-PSpiceFiles\SCHEMATIC1\FACTOR STABILIZARE.sim ] 


 ****     Diode MODEL PARAMETERS


******************************************************************************




               BZX84-C2V7      Dbreak          
          IS  110.880000E-18   10.000000E-15 
           N     .92657                      
         ISR    1.515900E-06                 
         IKF  147.68                         
          BV    2.7639                       
         IBV     .06977                      
          RS     .85899          .1          
          TT   17.889000E-09                 
         CJO  344.690000E-12  100.000000E-15 
          VJ     .72935                      
           M     .31964                      


**** 11/08/24 22:57:54 ****** PSpice Lite (October 2012) ****** ID# 10813 ****

 ** Profile: "SCHEMATIC1-FACTOR STABILIZARE"  [ D:\P1s_2024\STAB_TST_10\STAB_TST_10-PSpiceFiles\SCHEMATIC1\FACTOR STABILIZARE.sim ] 


 ****     BJT MODEL PARAMETERS


******************************************************************************




               QBC807-25       QBC817-25       QBC846B         QMJD31C         
               PNP             NPN             NPN             NPN             
       LEVEL    1               1               1               1            
          IS  108.000000E-15   91.980000E-15   18.220000E-15   90.620200E-12 
          EG                                                    1.05         
          BF  385.7           338.8           324.4             3.418700E+03 
          NF     .99            1.003            .9932          1.17603      
         VAF   31.29          107.9            82              29.2393       
         IKF     .3603           .4913           .109            .108267     
         ISE   27.130000E-15  446.800000E-18  289.400000E-18  537.193000E-09 
          NE    1.4             1.65            1.4             4            
          BR   20.57           29.48            8.29          367.353        
          NR     .9849          1.002            .9931          5            
         VAR   11.62           25              17.9             1.631        
         IKR     .054            .193            .09            1.15207      
         ISC  506.200000E-15    5.109000E-15    9.982000E-12    1.157540E-09 
          NC    1.295           1.071           1.763           1.49179      
         ISS    0               0               0               0            
          RB    1               1              10              22.4853       
         RBM     .5             1               5               1.000000E-12 
         IRB    1.000000E-06    1.000000E+03    5.000000E-06    2.209370E-03 
          RE     .1415           .2126           .649         100.000000E-06 
          RC     .2623           .143            .7014           .138633     
         CJE   51.140000E-12   38.250000E-12   12.440000E-12  373.889000E-12 
         VJE     .8911           .7004           .7579           .67672      
         MJE     .4417           .364            .3656           .575056     
         CJC   26.560000E-12   12.700000E-12    3.347000E-12  352.510000E-12 
         VJC     .62             .4431           .5463           .884306     
         MJC     .4836           .3983           .391            .473486     
        XCJC     .459            .4555           .6193           .1          
         CJS    0               0               0               0            
         VJS     .75             .75             .75             .75         
         MJS     .333            .333            .333            .5          
          FC     .99             .905            .979            .8          
          TF  735.900000E-12  522.900000E-12  490.800000E-12   10.000000E-09 
         XTF    1.859         219.7             9.51            3.4926       
         VTF    3.813           3.502           2.927          12.6615       
         ITF     .4393          7.257            .3131           .052395     
          TR   50.000000E-09   70.000000E-12   90.000000E-09    3.298030E-06 
         XTB                                                  999.997000E-15 
         XTI                                                    1.000000E-12 
          KF    0               0               0               0            
          AF    1               1               1               1            
          CN    2.2             2.42            2.42            2.42         
           D     .52             .87             .87             .87         



          JOB CONCLUDED

**** 11/08/24 22:57:54 ****** PSpice Lite (October 2012) ****** ID# 10813 ****

 ** Profile: "SCHEMATIC1-FACTOR STABILIZARE"  [ D:\P1s_2024\STAB_TST_10\STAB_TST_10-PSpiceFiles\SCHEMATIC1\FACTOR STABILIZARE.sim ] 


 ****     JOB STATISTICS SUMMARY


******************************************************************************



  Total job time (using Solver 1)   =         .02
